
  EPA STORM WATER MANAGEMENT MODEL - VERSION 5.2 (Build 5.2.4)
  PYSWMM TOOLKIT API - VERSION v1.0 (2026-02-26)
  ------------------------------------------------------------

  SWMM Example 8 - Combined Sewer System 
  Replicated from EPA SWMM Applications Manual 
  For research use: Hybrid AI sensor placement project 
  
  ERROR 173: Time Series CarrierFlow_JI2 has its data out of sequence. at 01/01/2020 00:00:00.
  
  ERROR 173: Time Series ContamConc_JI2 has its data out of sequence. at 01/01/2020 00:00:00.0.............. NO
    Groundwater ............ NO
    Flow Routing ........... YES
    Ponding Allowed ........ NO
    Water Quality .......... YES
  Infiltration Method ...... HORTON
  Flow Routing Method ...... DYNWAVE
  Surcharge Method ......... EXTRAN
  Starting Date ............ 01/01/2020 00:00:00
  Ending Date .............. 01/01/2020 12:00:00
  Antecedent Dry Days ...... 0.0
  Report Time Step ......... 00:01:00
  Wet Time Step ............ 00:01:00
  Dry Time Step ............ 01:00:00
  Routing Time Step ........ 15.00 sec
  Variable Time Step ....... YES
  Maximum Trials ........... 8
  Number of Threads ........ 1
  Head Tolerance ........... 0.005000 ft
  
  
  **************************        Volume         Depth
  Runoff Quantity Continuity     acre-feet        inches
  **************************     ---------       -------
  Total Precipitation ......         0.677         0.280
  Evaporation Loss .........         0.000         0.000
  Infiltration Loss ........         0.183         0.076
  Surface Runoff ...........         0.427         0.177
  Final Storage ............         0.067         0.028
  Continuity Error (%) .....        -0.010
  
  
  **************************        CONTAM
  Runoff Quality Continuity            lbs
  **************************    ----------
  Initial Buildup ..........         0.000
  Surface Buildup ..........         0.000
  Wet Deposition ...........         0.000
  Sweeping Removal .........         0.000
  Infiltration Loss ........         0.000
  BMP Removal ..............         0.000
  Surface Runoff ...........         0.000
  Remaining Buildup ........         0.000
  Continuity Error (%) .....         0.000
  
  
  **************************        Volume        Volume
  Flow Routing Continuity        acre-feet      10^6 gal
  **************************     ---------     ---------
  Dry Weather Inflow .......         0.000         0.000
  Wet Weather Inflow .......         0.427         0.139
  Groundwater Inflow .......         0.000         0.000
  RDII Inflow ..............         0.000         0.000
  External Inflow ..........         0.048         0.016
  External Outflow .........         0.381         0.124
  Flooding Loss ............         0.000         0.000
  Evaporation Loss .........         0.000         0.000
  Exfiltration Loss ........         0.000         0.000
  Initial Stored Volume ....         0.049         0.016
  Final Stored Volume ......         0.150         0.049
  Continuity Error (%) .....        -1.372
  
  
  **************************        CONTAM
  Quality Routing Continuity           lbs
  **************************    ----------
  Dry Weather Inflow .......         0.000
  Wet Weather Inflow .......         0.000
  Groundwater Inflow .......         0.000
  RDII Inflow ..............         0.000
  External Inflow ..........         0.345
  External Outflow .........         0.139
  Flooding Loss ............         0.000
  Exfiltration Loss ........         0.000
  Mass Reacted .............         0.000
  Initial Stored Mass ......         0.000
  Final Stored Mass ........         0.127
  Continuity Error (%) .....        22.967
  
  
  *************************
  Highest Continuity Errors
  *************************
  Node J9 (10.44%)
  Node JI12 (10.06%)
  Node JI11 (9.13%)
  Node J3 (5.42%)
  Node J6 (4.31%)
  
  
  ***************************
  Time-Step Critical Elements
  ***************************
  Link I5 (99.97%)
  
  
  ********************************
  Highest Flow Instability Indexes
  ********************************
  Link I10 (3)
  Link Pump1 (2)
  
  
  *********************************
  Most Frequent Nonconverging Nodes
  *********************************
  Node O1 (1.45%)
  Node O2 (1.45%)
  Node JI10 (1.09%)
  Node JI11 (0.53%)
  Node JI12 (0.17%)
  
  
  *************************
  Routing Time Step Summary
  *************************
  Minimum Time Step           :     0.50 sec
  Average Time Step           :     2.02 sec
  Maximum Time Step           :    15.00 sec
  % of Time in Steady State   :     0.00
  Average Iterations per Step :     2.17
  % of Steps Not Converging   :     1.45
  Time Step Frequencies       :
     15.000 -  7.597 sec      :     0.02 %
      7.597 -  3.848 sec      :     0.00 %
      3.848 -  1.949 sec      :    57.63 %
      1.949 -  0.987 sec      :    12.88 %
      0.987 -  0.500 sec      :    29.47 %
  
  
  ***************************
  Subcatchment Runoff Summary
  ***************************
  
  ------------------------------------------------------------------------------------------------------------------------------
                            Total      Total      Total      Total     Imperv       Perv      Total       Total     Peak  Runoff
                           Precip      Runon       Evap      Infil     Runoff     Runoff     Runoff      Runoff   Runoff   Coeff
  Subcatchment                 in         in         in         in         in         in         in    10^6 gal      CFS
  ------------------------------------------------------------------------------------------------------------------------------
  S1                         0.28       0.00       0.00       0.08       0.18       0.00       0.18        0.02     0.92   0.631
  S2                         0.28       0.00       0.00       0.08       0.18       0.00       0.18        0.04     1.49   0.630
  S3                         0.28       0.00       0.00       0.08       0.18       0.00       0.18        0.01     0.56   0.631
  S4                         0.28       0.00       0.00       0.08       0.18       0.00       0.18        0.03     1.23   0.631
  S5                         0.28       0.00       0.00       0.08       0.18       0.00       0.18        0.02     0.91   0.631
  S6                         0.28       0.00       0.00       0.08       0.18       0.00       0.18        0.01     0.38   0.632
  S7                         0.28       0.00       0.00       0.08       0.18       0.00       0.18        0.01     0.37   0.632
  
  
  ****************************
  Subcatchment Washoff Summary
  ****************************
  
  ----------------------------------
                              CONTAM
  Subcatchment                   lbs
  ----------------------------------
  S1                           0.000
  S2                           0.000
  S3                           0.000
  S4                           0.000
  S5                           0.000
  S6                           0.000
  S7                           0.000
  ----------------------------------
  System                       0.000
  
  
  ******************
  Node Depth Summary
  ******************
  
  ---------------------------------------------------------------------------------
                                 Average  Maximum  Maximum  Time of Max    Reported
                                   Depth    Depth      HGL   Occurrence   Max Depth
  Node                 Type         Feet     Feet     Feet  days hr:min        Feet
  ---------------------------------------------------------------------------------
  J1                   JUNCTION     0.14     0.37  4969.37     0  01:05        0.37
  J2a                  JUNCTION     0.15     0.42  4967.12     0  01:05        0.42
  J2                   JUNCTION     0.17     0.45  4965.45     0  01:05        0.45
  J7                   JUNCTION     0.14     0.41  4960.41     0  01:05        0.41
  J12                  JUNCTION     0.13     0.33  4968.33     0  01:05        0.33
  J13                  JUNCTION     0.12     0.31  4968.31     0  01:05        0.31
  J3                   JUNCTION     0.01     0.03  4968.03     0  07:33        0.03
  J4                   JUNCTION     0.00     0.01  4966.01     0  07:35        0.01
  J5                   JUNCTION     0.00     0.02  4964.82     0  07:16        0.02
  J6                   JUNCTION     0.00     0.02  4964.02     0  07:57        0.02
  J8                   JUNCTION     0.00     0.01  4961.51     0  07:47        0.01
  J9                   JUNCTION     0.00     0.02  4959.82     0  08:41        0.02
  J10                  JUNCTION     0.04     0.13  4958.93     0  01:05        0.13
  J11                  JUNCTION     0.07     0.21  4958.21     0  01:05        0.21
  Aux3                 JUNCTION     0.16     0.39  4968.89     0  00:49        0.39
  JI18                 JUNCTION     0.12     0.33  4958.33     0  01:06        0.33
  JI2                  JUNCTION     0.19     0.53  4957.53     0  01:05        0.53
  JI3                  JUNCTION     0.26     0.71  4955.71     0  00:59        0.71
  JI4                  JUNCTION     0.30     1.85  4953.85     0  01:10        1.84
  JI5                  JUNCTION     0.60     3.71  4953.71     0  01:11        3.71
  JI6                  JUNCTION     0.08     0.30  4967.30     0  01:05        0.30
  JI7                  JUNCTION     0.06     0.17  4967.17     0  01:05        0.17
  JI8                  JUNCTION     0.08     0.21  4962.21     0  01:05        0.21
  JI9                  JUNCTION     0.11     0.32  4960.32     0  01:06        0.32
  JI10                 JUNCTION    21.09    58.92  5005.92     0  00:33       24.98
  JI11                 JUNCTION    13.82    73.67  5028.47     0  00:40       16.95
  JI12                 JUNCTION     6.88    50.25  5012.85     0  00:45        8.91
  JI13                 JUNCTION     0.15     0.60  4971.00     0  01:12        0.60
  O1                   OUTFALL      0.06     0.21  4957.21     0  01:05        0.21
  O2                   OUTFALL      2.00     2.00  4970.00     0  00:00        2.00
  Well                 STORAGE      4.18     8.67  4953.67     0  01:11        8.67
  
  
  *******************
  Node Inflow Summary
  *******************
  
  -------------------------------------------------------------------------------------------------
                                  Maximum  Maximum                  Lateral       Total        Flow
                                  Lateral    Total  Time of Max      Inflow      Inflow     Balance
                                   Inflow   Inflow   Occurrence      Volume      Volume       Error
  Node                 Type           CFS      CFS  days hr:min    10^6 gal    10^6 gal     Percent
  -------------------------------------------------------------------------------------------------
  J1                   JUNCTION      0.93     0.93     0  01:05      0.0244      0.0244       0.030
  J2a                  JUNCTION      1.50     1.50     0  01:05      0.0389      0.0389       0.007
  J2                   JUNCTION      0.00     1.50     0  01:05           0      0.0389       0.072
  J7                   JUNCTION      0.00     1.24     0  01:05           0      0.0332       0.081
  J12                  JUNCTION      0.92     0.92     0  01:05      0.0256      0.0256       0.077
  J13                  JUNCTION      1.24     1.24     0  01:05      0.0332      0.0332       0.021
  J3                   JUNCTION      0.01     0.01     0  05:20     0.00061     0.00061       5.732
  J4                   JUNCTION      0.00     0.01     0  07:33           0    0.000577       0.816
  J5                   JUNCTION      0.00     0.01     0  07:35           0    0.000573       3.524
  J6                   JUNCTION      0.00     0.01     0  07:36           0    0.000553       4.509
  J8                   JUNCTION      0.00     0.01     0  07:52           0    0.000529       1.856
  J9                   JUNCTION      0.00     0.01     0  08:01           0     0.00052      11.654
  J10                  JUNCTION      0.37     0.37     0  01:05     0.00864     0.00911       0.594
  J11                  JUNCTION      0.38     0.75     0  01:05     0.00888      0.0179       0.157
  Aux3                 JUNCTION      0.57     0.57     0  01:05      0.0145      0.0145       0.166
  JI18                 JUNCTION      0.00     0.56     0  01:05           0      0.0144       0.051
  JI2                  JUNCTION      0.00     1.49     0  01:05           0      0.0388       0.021
  JI3                  JUNCTION      0.00     2.72     0  01:05           0       0.072       0.129
  JI4                  JUNCTION      0.00     3.71     0  01:00           0      0.0975       0.078
  JI5                  JUNCTION      0.00     4.99     0  00:58           0       0.136       0.135
  JI6                  JUNCTION      0.00     0.57     0  01:05           0      0.0145       0.141
  JI7                  JUNCTION      0.00     0.93     0  01:05           0      0.0244       0.009
  JI8                  JUNCTION      0.00     0.92     0  01:05           0      0.0256       0.064
  JI9                  JUNCTION      0.00     1.49     0  01:05           0      0.0389       0.054
  JI10                 JUNCTION      0.00     7.20     0  00:29           0       0.136       4.449
  JI11                 JUNCTION      0.00     7.26     0  00:38           0        0.13      10.051
  JI12                 JUNCTION      0.00     5.24     0  00:41           0       0.118      11.189
  JI13                 JUNCTION      0.00     3.95     0  01:11           0       0.106       0.065
  O1                   OUTFALL       0.00     0.75     0  01:05           0      0.0179       0.000
  O2                   OUTFALL       0.00     3.93     0  01:12           0       0.106       0.000
  Well                 STORAGE       0.00     5.17     0  00:58           0       0.143      -0.115
  
  
  **********************
  Node Surcharge Summary
  **********************
  
  Surcharging occurs when water rises above the top of the highest conduit.
  ---------------------------------------------------------------------
                                               Max. Height   Min. Depth
                                   Hours       Above Crown    Below Rim
  Node                 Type      Surcharged           Feet         Feet
  ---------------------------------------------------------------------
  JI4                  JUNCTION        0.13          0.349       12.151
  JI5                  JUNCTION        0.49          1.710       12.290
  JI10                 JUNCTION       11.47         56.923        0.000
  JI11                 JUNCTION       11.33         71.674        0.000
  JI12                 JUNCTION       11.24         48.250        0.000
  
  
  *********************
  Node Flooding Summary
  *********************
  
  No nodes were flooded.
  
  
  **********************
  Storage Volume Summary
  **********************
  
  ------------------------------------------------------------------------------------------------
                         Average    Avg   Evap  Exfil     Maximum    Max    Time of Max    Maximum
                          Volume   Pcnt   Pcnt   Pcnt      Volume   Pcnt     Occurrence    Outflow
  Storage Unit          1000 ft³   Full   Loss   Loss    1000 ft³   Full    days hr:min        CFS
  ------------------------------------------------------------------------------------------------
  Well                     1.253   29.8    0.0    0.0       2.600   61.9       0  01:11       7.20
  
  
  ***********************
  Outfall Loading Summary
  ***********************
  
  -------------------------------------------------------------------------
                         Flow       Avg       Max       Total         Total
                         Freq      Flow      Flow      Volume        CONTAM
  Outfall Node           Pcnt       CFS       CFS    10^6 gal           lbs
  -------------------------------------------------------------------------
  O1                    88.35      0.21      0.75       0.018         0.139
  O2                    70.84      1.04      3.93       0.106         0.000
  -------------------------------------------------------------------------
  System                79.59      1.25      4.44       0.124         0.139
  
  
  ********************
  Link Flow Summary
  ********************
  
  -----------------------------------------------------------------------------
                                 Maximum  Time of Max   Maximum    Max/    Max/
                                  |Flow|   Occurrence   |Veloc|    Full    Full
  Link                 Type          CFS  days hr:min    ft/sec    Flow   Depth
  -----------------------------------------------------------------------------
  C3                   CONDUIT      0.01     0  07:33      1.28    0.00    0.01
  C4                   CONDUIT      0.01     0  07:35      0.14    0.00    0.01
  C5                   CONDUIT      0.01     0  07:36      0.12    0.00    0.01
  C6                   CONDUIT      0.00     0  00:00      0.00    0.00    0.00
  C7                   CONDUIT      0.01     0  07:52      1.19    0.00    0.00
  C8                   CONDUIT      0.01     0  08:01      0.16    0.00    0.00
  C9                   CONDUIT      0.01     0  08:58      0.10    0.00    0.02
  C10                  CONDUIT      0.37     0  01:05      0.37    0.00    0.06
  C11                  CONDUIT      0.75     0  01:05      2.63    0.00    0.04
  C_Aux3               CONDUIT      0.00     0  00:00      0.00    0.00    0.01
  P1                   CONDUIT      0.93     0  01:05      4.57    0.14    0.20
  P2                   CONDUIT      1.50     0  01:05      3.51    0.17    0.29
  P3                   CONDUIT      1.49     0  01:05      4.18    0.18    0.26
  P4                   CONDUIT      0.57     0  01:05      1.90    0.10    0.20
  P5                   CONDUIT      1.24     0  01:05      3.55    0.07    0.22
  P6                   CONDUIT      0.92     0  01:05      4.06    0.07    0.16
  I1                   CONDUIT      0.56     0  01:06      1.85    0.24    0.43
  I2                   CONDUIT      1.49     0  01:05      2.94    0.55    0.62
  I3                   CONDUIT      2.80     0  01:00      3.60    0.46    0.73
  I4                   CONDUIT      3.54     0  00:58      4.75    0.33    1.00
  I5                   CONDUIT      0.93     0  01:05     13.44    0.37    0.76
  I6                   CONDUIT      1.23     0  01:05      4.14    0.71    0.81
  I7                   CONDUIT      0.92     0  01:05      6.22    0.36    0.71
  I8                   CONDUIT      1.48     0  01:05      8.61    0.70    0.82
  I9                   CONDUIT      5.17     0  00:58      4.85    0.28    1.00
  I10                  CONDUIT      7.26     0  00:38      4.32    0.32    1.00
  I11                  CONDUIT      5.24     0  00:41      2.96    0.23    1.00
  I12                  CONDUIT      3.95     0  01:11      1.83    0.17    0.65
  I13                  CONDUIT      3.93     0  01:12      1.11    0.05    0.32
  Pump1                PUMP         7.20     0  00:29              1.00
  W1                   WEIR         0.00     0  00:00                      0.00
  W2                   WEIR         0.00     0  00:00                      0.00
  W3                   WEIR         0.00     0  00:00                      0.00
  W4                   WEIR         0.00     0  00:00                      0.00
  Or1                  ORIFICE      0.56     0  01:05                          
  
  
  ***************************
  Flow Classification Summary
  ***************************
  
  -------------------------------------------------------------------------------------
                      Adjusted    ---------- Fraction of Time in Flow Class ---------- 
                       /Actual         Up    Down  Sub   Sup   Up    Down  Norm  Inlet 
  Conduit               Length    Dry  Dry   Dry   Crit  Crit  Crit  Crit  Ltd   Ctrl  
  -------------------------------------------------------------------------------------
  C3                      1.00   0.44  0.00  0.00  0.18  0.37  0.00  0.00  0.00  0.00
  C4                      1.00   0.45  0.00  0.00  0.55  0.00  0.00  0.00  0.45  0.00
  C5                      1.00   0.47  0.00  0.00  0.53  0.00  0.00  0.00  0.37  0.00
  C6                      1.00   0.51  0.49  0.00  0.00  0.00  0.00  0.00  0.00  0.00
  C7                      1.00   0.51  0.00  0.00  0.13  0.36  0.00  0.00  0.00  0.00
  C8                      1.00   0.53  0.00  0.00  0.47  0.00  0.00  0.00  0.33  0.00
  C9                      1.00   0.01  0.57  0.00  0.42  0.00  0.00  0.00  0.08  0.00
  C10                     1.00   0.01  0.00  0.00  0.99  0.00  0.00  0.00  0.99  0.00
  C11                     1.00   0.01  0.00  0.00  0.57  0.42  0.00  0.00  0.04  0.00
  C_Aux3                  1.00   0.44  0.56  0.00  0.00  0.00  0.00  0.00  0.00  0.00
  P1                      1.00   0.00  0.00  0.00  0.00  1.00  0.00  0.00  0.00  0.00
  P2                      1.00   0.00  0.00  0.00  0.88  0.12  0.00  0.00  0.96  0.00
  P3                      1.00   0.00  0.00  0.00  0.00  1.00  0.00  0.00  0.00  0.00
  P4                      1.00   0.00  0.00  0.00  1.00  0.00  0.00  0.00  0.00  0.00
  P5                      1.00   0.00  0.00  0.00  0.00  1.00  0.00  0.00  0.98  0.00
  P6                      1.00   0.00  0.00  0.00  0.00  1.00  0.00  0.00  0.00  0.00
  I1                      1.00   0.00  0.00  0.00  1.00  0.00  0.00  0.00  1.00  0.00
  I2                      1.00   0.00  0.00  0.00  0.98  0.02  0.00  0.00  0.98  0.00
  I3                      1.00   0.00  0.00  0.00  1.00  0.00  0.00  0.00  0.04  0.00
  I4                      1.00   0.00  0.00  0.00  0.25  0.75  0.00  0.00  0.95  0.00
  I5                      1.00   0.00  0.00  0.00  0.00  1.00  0.00  0.00  0.90  0.00
  I6                      1.00   0.00  0.00  0.00  0.96  0.04  0.00  0.00  0.98  0.00
  I7                      1.00   0.00  0.00  0.00  0.01  0.99  0.00  0.00  0.99  0.00
  I8                      1.00   0.00  0.00  0.00  0.37  0.63  0.00  0.00  0.98  0.00
  I9                      1.00   0.00  0.00  0.00  0.34  0.00  0.00  0.66  0.27  0.00
  I10                     1.00   0.04  0.00  0.00  0.96  0.00  0.00  0.00  0.00  0.00
  I11                     1.00   0.04  0.01  0.00  0.94  0.00  0.00  0.00  0.00  0.00
  I12                     1.00   0.06  0.01  0.00  0.94  0.00  0.00  0.00  0.00  0.00
  I13                     1.00   0.00  0.06  0.00  0.94  0.00  0.00  0.00  0.94  0.00
  
  
  *************************
  Conduit Surcharge Summary
  *************************
  
  ----------------------------------------------------------------------------
                                                           Hours        Hours 
                         --------- Hours Full --------   Above Full   Capacity
  Conduit                Both Ends  Upstream  Dnstream   Normal Flow   Limited
  ----------------------------------------------------------------------------
  I3                          0.01      0.01      0.13      0.01         0.01
  I4                          0.13      0.13      0.56      0.01         0.01
  I5                          0.01      0.01      0.83      0.01         0.01
  I6                          0.01      0.01      0.40      0.01         0.01
  I7                          0.01      0.01      0.76      0.01         0.01
  I8                          0.01      0.01      1.05      0.01         0.01
  I9                          0.49      0.49      0.64      0.01         0.01
  I10                        11.33     11.33     11.47      0.01         0.01
  I11                        11.24     11.24     11.33      0.01         0.01
  I12                         0.01      0.01     11.24      0.01         0.01
  
  
  ***************
  Pumping Summary
  ***************
  
  ---------------------------------------------------------------------------------------------------------
                                                  Min       Avg       Max     Total     Power    % Time Off
                        Percent   Number of      Flow      Flow      Flow    Volume     Usage    Pump Curve
  Pump                 Utilized   Start-Ups       CFS       CFS       CFS  10^6 gal     Kw-hr    Low   High
  ---------------------------------------------------------------------------------------------------------
  Pump1                   19.84           4      0.00      2.96      7.20     0.136      7.74    0.0    3.8
  
  
  ***************************
  Link Pollutant Load Summary
  ***************************
  
  ----------------------------------
                              CONTAM
  Link                           lbs
  ----------------------------------
  C3                           0.193
  C4                           0.208
  C5                           0.218
  C6                           0.000
  C7                           0.180
  C8                           0.187
  C9                           0.161
  C10                          0.146
  C11                          0.139
  C_Aux3                       0.000
  P1                           0.000
  P2                           0.000
  P3                           0.000
  P4                           0.000
  P5                           0.000
  P6                           0.000
  I1                           0.000
  I2                           0.000
  I3                           0.000
  I4                           0.000
  I5                           0.000
  I6                           0.000
  I7                           0.000
  I8                           0.000
  I9                           0.000
  I10                          0.000
  I11                          0.000
  I12                          0.000
  I13                          0.000
  Pump1                        0.000
  W1                           0.000
  W2                           0.000
  W3                           0.000
  W4                           0.000
  Or1                          0.000
  

  Analysis begun on:  Tue Apr  7 13:16:39 2026
  Analysis ended on:  Tue Apr  7 13:16:40 2026
  Total elapsed time: 00:00:01